Version 4
SHEET 1 3524 1360
WIRE 1408 -96 1120 -96
WIRE 1616 -96 1472 -96
WIRE 656 -16 448 -16
WIRE 912 -16 784 -16
WIRE -144 0 -176 0
WIRE 16 0 -80 0
WIRE 144 0 96 0
WIRE 656 0 656 -16
WIRE 720 0 720 -48
WIRE 784 0 784 -16
WIRE 848 0 848 -64
WIRE -480 16 -480 -16
WIRE 912 32 912 -16
WIRE 1024 32 912 32
WIRE 1120 32 1120 -96
WIRE 1120 32 1104 32
WIRE 1152 32 1120 32
WIRE 1344 32 1232 32
WIRE 1392 32 1344 32
WIRE 1616 48 1616 -96
WIRE 1616 48 1456 48
WIRE 1728 48 1616 48
WIRE 304 64 256 64
WIRE 448 64 448 -16
WIRE 448 64 384 64
WIRE 1392 64 1376 64
WIRE -176 80 -176 0
WIRE -64 80 -176 80
WIRE 144 80 144 0
WIRE 144 80 16 80
WIRE 1616 80 1616 48
WIRE 448 96 448 64
WIRE -480 128 -480 96
WIRE -480 128 -576 128
WIRE 1344 128 1344 32
WIRE 144 144 144 80
WIRE 144 144 -80 144
WIRE 256 144 256 64
WIRE 256 144 144 144
WIRE -320 160 -368 160
WIRE -176 160 -176 80
WIRE -176 160 -240 160
WIRE -144 160 -176 160
WIRE -480 176 -480 128
WIRE -48 176 -80 176
WIRE 1376 176 1376 64
WIRE 1616 176 1616 160
WIRE 1616 176 1376 176
WIRE -576 192 -576 128
WIRE -48 208 -48 176
WIRE 256 208 256 144
WIRE 304 208 256 208
WIRE 448 208 448 176
WIRE 448 208 384 208
WIRE 1616 208 1616 176
WIRE 1344 240 1344 192
WIRE 448 272 448 208
WIRE 656 272 656 256
WIRE 656 272 448 272
WIRE -480 288 -480 256
WIRE 1952 288 1952 256
WIRE 720 304 720 256
WIRE 784 304 784 256
WIRE 848 304 848 256
WIRE 1616 304 1616 288
WIRE 1952 384 1952 352
WIRE 2032 384 1952 384
WIRE 1728 416 1728 48
WIRE 1728 416 192 416
WIRE 2032 416 2032 384
WIRE 1952 464 1952 384
WIRE 1504 560 1104 560
WIRE 1680 560 1584 560
WIRE 1952 576 1952 528
WIRE 608 592 368 592
WIRE 832 592 688 592
WIRE 1376 624 1360 624
WIRE 1552 624 1456 624
WIRE 192 720 192 416
WIRE 240 720 192 720
WIRE 368 720 368 592
WIRE 368 720 304 720
WIRE 432 720 368 720
WIRE 512 720 496 720
WIRE 608 720 512 720
WIRE 832 736 832 592
WIRE 832 736 672 736
WIRE 1104 736 1104 560
WIRE 1104 736 832 736
WIRE 1248 736 1104 736
WIRE 1360 736 1360 624
WIRE 1360 736 1328 736
WIRE 1424 736 1360 736
WIRE 608 752 592 752
WIRE 1552 752 1552 624
WIRE 1552 752 1488 752
WIRE 1568 752 1552 752
WIRE 1680 752 1680 560
WIRE 1680 752 1632 752
WIRE 1744 752 1680 752
WIRE 832 768 832 736
WIRE 1104 768 1104 736
WIRE 1360 768 1168 768
WIRE 1424 768 1360 768
WIRE 1360 800 1360 768
WIRE 512 816 512 720
WIRE 592 864 592 752
WIRE 832 864 832 848
WIRE 832 864 592 864
WIRE 832 896 832 864
WIRE 1360 896 1360 880
WIRE 512 944 512 896
WIRE 832 992 832 976
FLAG 2032 416 0
FLAG 1952 576 VEE
IOPIN 1952 576 Out
FLAG 1952 256 VCC
IOPIN 1952 256 Out
FLAG -112 128 VCC
IOPIN -112 128 In
FLAG -112 192 VEE
IOPIN -112 192 In
FLAG -48 208 0
FLAG -576 192 0
FLAG 1360 896 0
FLAG 1744 752 Vout
IOPIN 1744 752 Out
FLAG 1456 720 VCC
IOPIN 1456 720 In
FLAG 1456 784 VEE
IOPIN 1456 784 In
FLAG 1344 240 0
FLAG 1616 304 0
FLAG 1424 16 VEE
IOPIN 1424 16 In
FLAG 1424 80 VCC
IOPIN 1424 80 In
FLAG 512 944 0
FLAG 832 992 0
FLAG 640 704 VEE
IOPIN 640 704 In
FLAG 640 768 VCC
IOPIN 640 768 In
FLAG -480 -16 Vin+
IOPIN -480 -16 BiDir
FLAG -480 288 Vin-
IOPIN -480 288 BiDir
FLAG 848 -64 0
FLAG -368 160 0
FLAG 784 304 Vin+
IOPIN 784 304 BiDir
FLAG 720 304 Vin-
IOPIN 720 304 BiDir
FLAG 720 -48 VCC
IOPIN 720 -48 In
FLAG 848 304 VEE
IOPIN 848 304 In
SYMBOL Opamps\\LT1920 752 128 R270
SYMATTR InstName U1
SYMBOL res 288 80 R270
WINDOW 0 32 56 VTop 2
WINDOW 3 0 56 VBottom 2
SYMATTR InstName R1
SYMATTR Value 22k
SYMBOL res 288 224 R270
WINDOW 0 32 56 VTop 2
WINDOW 3 0 56 VBottom 2
SYMATTR InstName R2
SYMATTR Value 22k
SYMBOL res 432 80 R0
SYMATTR InstName Rg
SYMATTR Value 7.5k
SYMBOL Misc\\cell 1952 288 R0
WINDOW 123 0 0 Left 2
WINDOW 39 0 0 Left 2
SYMATTR InstName V1
SYMATTR Value 15
SYMBOL Misc\\cell 1952 464 R0
WINDOW 123 0 0 Left 2
WINDOW 39 0 0 Left 2
SYMATTR InstName V2
SYMATTR Value 15
SYMBOL res 0 16 R270
WINDOW 0 32 56 VTop 2
WINDOW 3 0 56 VBottom 2
SYMATTR InstName R3
SYMATTR Value 10K
SYMBOL cap -144 16 R270
WINDOW 0 32 32 VTop 2
WINDOW 3 0 32 VBottom 2
SYMATTR InstName C1
SYMATTR Value 100n
SYMBOL res -80 96 R270
WINDOW 0 32 56 VTop 2
WINDOW 3 0 56 VBottom 2
SYMATTR InstName R4
SYMATTR Value 1Meg
SYMBOL Opamps\\opamp2 -112 96 M0
WINDOW 3 -112 61 Left 2
SYMATTR Value TL084
SYMATTR InstName U2
SYMBOL res -336 176 R270
WINDOW 0 32 56 VTop 2
WINDOW 3 0 56 VBottom 2
SYMATTR InstName R5
SYMATTR Value 220k
SYMBOL voltage -480 0 R0
WINDOW 123 24 124 Left 2
WINDOW 39 0 0 Left 2
SYMATTR Value2 AC 20m
SYMATTR InstName V4
SYMATTR Value ""
SYMBOL voltage -480 160 R0
WINDOW 123 24 124 Left 2
WINDOW 39 0 0 Left 2
SYMATTR Value2 AC 1m
SYMATTR InstName V5
SYMATTR Value ""
SYMBOL res 1360 640 R270
WINDOW 0 32 56 VTop 2
WINDOW 3 -13 52 VBottom 2
SYMATTR InstName R14
SYMATTR Value 10k
SYMBOL res 1488 576 R270
WINDOW 0 32 56 VTop 2
WINDOW 3 -13 52 VBottom 2
SYMATTR InstName R15
SYMATTR Value 68k
SYMBOL res 1232 752 R270
WINDOW 0 32 56 VTop 2
WINDOW 3 -13 52 VBottom 2
SYMATTR InstName R16
SYMATTR Value 10k
SYMBOL cap 1104 784 R270
WINDOW 0 40 29 VTop 2
WINDOW 3 0 32 VBottom 2
SYMATTR InstName C4
SYMATTR Value 47n
SYMBOL cap 1568 768 R270
WINDOW 0 32 32 VTop 2
WINDOW 3 0 32 VBottom 2
SYMATTR InstName C7
SYMATTR Value 47n
SYMBOL Opamps\\opamp2 1456 688 R0
WINDOW 3 28 108 Left 2
SYMATTR Value TL084
SYMATTR InstName U5
SYMBOL res 1344 784 R0
SYMATTR InstName R17
SYMATTR Value 68k
SYMBOL Opamps\\opamp2 1424 112 M180
WINDOW 3 28 108 Left 2
SYMATTR Value TL084
SYMATTR InstName U4
SYMBOL res 1120 16 R90
WINDOW 0 0 56 VBottom 2
WINDOW 3 32 56 VTop 2
SYMATTR InstName R10
SYMATTR Value 120k
SYMBOL cap 1472 -112 R90
WINDOW 0 0 32 VBottom 2
WINDOW 3 32 32 VTop 2
SYMATTR InstName C5
SYMATTR Value 10n
SYMBOL cap 1328 128 R0
WINDOW 0 -38 29 Left 2
WINDOW 3 -39 56 Left 2
SYMATTR InstName C6
SYMATTR Value 100n
SYMBOL res 1600 64 R0
SYMATTR InstName R12
SYMATTR Value 820k
SYMBOL res 1600 192 R0
SYMATTR InstName R13
SYMATTR Value 82k
SYMBOL res 1248 16 R90
WINDOW 0 0 56 VBottom 2
WINDOW 3 32 56 VTop 2
SYMATTR InstName R18
SYMATTR Value 18k
SYMBOL Opamps\\opamp2 640 800 M180
WINDOW 3 28 108 Left 2
SYMATTR Value TL084
SYMATTR InstName U3
SYMBOL res 528 912 R180
WINDOW 0 36 76 Left 2
WINDOW 3 36 40 Left 2
SYMATTR InstName R6
SYMATTR Value 8.2k
SYMBOL res 704 576 R90
WINDOW 0 0 56 VBottom 2
WINDOW 3 32 56 VTop 2
SYMATTR InstName R7
SYMATTR Value 47k
SYMBOL cap 496 704 R90
WINDOW 0 0 32 VBottom 2
WINDOW 3 32 32 VTop 2
SYMATTR InstName C2
SYMATTR Value 100µ
SYMBOL cap 240 736 R270
WINDOW 0 32 32 VTop 2
WINDOW 3 0 32 VBottom 2
SYMATTR InstName C3
SYMATTR Value 100µ
SYMBOL res 816 752 R0
SYMATTR InstName R8
SYMATTR Value 120k
SYMBOL res 816 880 R0
SYMATTR InstName R9
SYMATTR Value 15k
TEXT 168 -88 Left 2 !.lib "C:\\Program Files (x86)\\LTC\\LTspiceIV\\lib\\TL084.301"
TEXT -312 672 Left 2 !.ac oct 10 0.0001 150
